
# DOCK : Save\mol2\file

@<TRIPOS>MOLECULE
8562
   32     34     0     0     0
SMALL
USER_CHARGES

LEAD-FINDER CHARGES TOPOLOGY 

@<TRIPOS>ATOM
      1 N           9.8750   38.0109    8.1025 N         1 L01    -0.3575
      2 N          13.2457   39.7245    3.8978 N         1 L01    -0.1487
      3 N          12.8241   39.2892    2.8057 N         1 L01    -0.1493
      4 C          12.1730   38.3716    7.2339 C         1 L01     0.0048
      5 C          13.0002   38.8064    6.1587 C         1 L01     0.0110
      6 C          10.7641   38.5473    7.1461 C         1 L01     0.0325
      7 C          12.4164   39.3740    4.9951 C         1 L01     0.0940
      8 C          14.4001   38.6449    6.2738 C         1 L01    -0.0519
      9 C          12.8005   37.7785    8.3568 C         1 L01    -0.0522
     10 C          10.2091   39.0635    5.9706 C         1 L01    -0.0384
     11 C          11.0207   39.4842    4.9198 C         1 L01    -0.0322
     12 C          14.9875   38.0690    7.3992 C         1 L01    -0.0611
     13 C          14.1864   37.6325    8.4408 C         1 L01    -0.0611
     14 C          13.6763   39.6030    1.7217 C         1 L01     0.0862
     15 C          13.6979   40.8472    1.0696 C         1 L01    -0.0345
     16 C          14.5904   38.6264    1.3091 C         1 L01    -0.0345
     17 C          14.5955   41.0985    0.0255 C         1 L01    -0.0597
     18 C          15.4913   38.8728    0.2693 C         1 L01    -0.0597
     19 C          15.4932   40.1093   -0.3719 C         1 L01    -0.0616
     20 H          14.9868   38.9532    5.5250 H         1 L01     0.0624
     21 H          12.2328   37.4540    9.1134 H         1 L01     0.0624
     22 H           9.2153   39.1315    5.8834 H         1 L01     0.0637
     23 H          10.6012   39.8710    4.0986 H         1 L01     0.0640
     24 H          15.9812   37.9719    7.4540 H         1 L01     0.0618
     25 H          14.5989   37.2142    9.2500 H         1 L01     0.0618
     26 H          10.2476   37.9823    9.0440 H         1 L01     0.1423
     27 H           8.9521   38.4332    8.0810 H         1 L01     0.1423
     28 H          13.0622   41.5641    1.3557 H         1 L01     0.0639
     29 H          14.5989   37.7370    1.7661 H         1 L01     0.0639
     30 H          14.5927   41.9863   -0.4346 H         1 L01     0.0618
     31 H          16.1345   38.1615   -0.0142 H         1 L01     0.0618
     32 H          16.1374   40.2869   -1.1158 H         1 L01     0.0618
@<TRIPOS>BOND
     1      1    27  1
     2      1    26  1
     3      1     6  1
     4      2     7  1
     5      2     3  2
     6      3    14  1
     7      4     9  2
     8      4     6  1
     9      4     5  1
    10      5     8  2
    11      5     7  1
    12      6    10  2
    13      7    11  2
    14      8    12  1
    15      8    20  1
    16      9    13  1
    17      9    21  1
    18     10    11  1
    19     10    22  1
    20     11    23  1
    21     12    13  2
    22     12    24  1
    23     13    25  1
    24     14    16  2
    25     14    15  1
    26     15    17  2
    27     15    28  1
    28     16    18  1
    29     16    29  1
    30     17    19  1
    31     17    30  1
    32     18    19  2
    33     18    31  1
    34     19    32  1
