
# DOCK : Save\mol2\file

@<TRIPOS>MOLECULE
432873
   43     45     0     0     0
SMALL
USER_CHARGES

LEAD-FINDER CHARGES TOPOLOGY 

@<TRIPOS>ATOM
      1 S          13.3495   41.3576    5.5720 S         1 L01    -0.0870
      2 O          13.3279   37.6385    3.3160 O         1 L01    -0.2865
      3 O          14.7584   36.0615    7.7839 O         1 L01    -0.3586
      4 N          13.9561   38.7934    0.9843 N         1 L01    -0.3718
      5 N          17.1487   38.0623   -0.9337 N         1 L01    -0.2687
      6 C          13.5599   39.9884    3.1143 C         1 L01     0.0599
      7 C          13.6544   39.9600    1.6865 C         1 L01     0.0564
      8 C          13.4158   41.2193    3.7930 C         1 L01     0.0299
      9 C          15.3010   38.2584    0.8173 C         1 L01     0.1152
     10 C          13.2992   42.4241    3.0554 C         1 L01    -0.0157
     11 C          16.0511   38.8858   -0.3782 C         1 L01     0.0963
     12 C          13.5954   38.7005    3.8790 C         1 L01     0.1979
     13 C          13.9062   38.6414    5.3320 C         1 L01     0.0469
     14 C          13.5374   41.1763    0.9998 C         1 L01     0.0165
     15 C          13.8404   39.7672    6.1452 C         1 L01     0.0326
     16 C          13.3370   42.3802    1.6616 C         1 L01    -0.0023
     17 C          13.1509   43.7790    3.7024 C         1 L01     0.0316
     18 C          14.2289   37.3975    5.9067 C         1 L01     0.0275
     19 C          14.1058   39.6471    7.5222 C         1 L01     0.0086
     20 C          14.4733   37.2922    7.2715 C         1 L01     0.0895
     21 C          18.2384   37.8726    0.0259 C         1 L01     0.0897
     22 C          16.6281   36.7580   -1.3506 C         1 L01     0.0897
     23 C          14.4232   38.4111    8.0896 C         1 L01     0.0244
     24 H          15.2380   37.2706    0.6753 H         1 L01     0.0000
     25 H          15.8175   38.4797    1.6445 H         1 L01     0.0000
     26 H          13.2525   38.5181    0.2877 H         1 L01     0.1604
     27 H          15.3889   39.0548   -1.1082 H         1 L01     0.0000
     28 H          16.4784   39.7202   -0.0299 H         1 L01     0.0000
     29 H          13.6002   41.1770    0.0017 H         1 L01     0.0000
     30 H          13.2189   43.2222    1.1352 H         1 L01     0.0000
     31 H          13.0997   44.4770    2.9881 H         1 L01     0.0000
     32 H          12.3174   43.8004    4.2545 H         1 L01     0.0000
     33 H          13.9374   43.9578    4.2935 H         1 L01     0.0000
     34 H          14.2828   36.5832    5.3288 H         1 L01     0.0000
     35 H          14.0666   40.4598    8.1035 H         1 L01     0.0000
     36 H          18.3747   36.8931    0.1743 H         1 L01     0.0000
     37 H          19.0788   38.2790   -0.3326 H         1 L01     0.0000
     38 H          18.0058   38.3162    0.8914 H         1 L01     0.0000
     39 H          17.1397   36.0382   -0.8814 H         1 L01     0.0000
     40 H          15.6586   36.6903   -1.1152 H         1 L01     0.0000
     41 H          16.7308   36.6552   -2.3400 H         1 L01     0.0000
     42 H          14.6110   38.3341    9.0688 H         1 L01     0.0000
     43 H          14.7516   35.4090    7.0626 H         1 L01     0.2174
@<TRIPOS>BOND
     1      1    15  1
     2      1     8  1
     3      2    12  2
     4      3    43  1
     5      3    20  1
     6      4    26  1
     7      4     9  1
     8      4     7  1
     9      5    22  1
    10      5    21  1
    11      5    11  1
    12      6    12  1
    13      6     8  2
    14      6     7  1
    15      7    14  2
    16      8    10  1
    17      9    11  1
    18      9    24  1
    19      9    25  1
    20     10    17  1
    21     10    16  2
    22     11    27  1
    23     11    28  1
    24     12    13  1
    25     13    18  2
    26     13    15  1
    27     14    16  1
    28     14    29  1
    29     15    19  2
    30     16    30  1
    31     17    31  1
    32     17    32  1
    33     17    33  1
    34     18    20  1
    35     18    34  1
    36     19    23  1
    37     19    35  1
    38     20    23  2
    39     21    36  1
    40     21    37  1
    41     21    38  1
    42     22    39  1
    43     22    40  1
    44     22    41  1
    45     23    42  1
