@<TRIPOS>COMMENT
 mtx
 %AMINO_ACIDS 6
 # Format: <mol_id> <mol_nr> <chain_id> <name> <m_id>
 2 57 A Arg57A 57
 3 52 A Arg52A 52
 4 100 A Tyr100A 100
 5 5 A Ile5A 5
 6 27 A Asp27A 27
 7 31 A Phe31A 31
 %DIRECTED_BONDS 8
 # Format: <aa_nr> <type> <pi_cat_type> <energy>
 #         <nof_lig_ia_atoms> <lig_ia_center> <lig_ia_atm1> ...
 #         <nof_aa_ia_atm> <aa_ia_center> <aa_ia_atm1> ...
 31 4 0 0.000000
 10 1 1 2 4 5 7 8 9 10 11 12
 6 1 1 9 10 11 12 13
 27 0 0 0.000000
 1 54 1
 1 1 1
 5 0 0 0.000000
 1 52 6
 1 1 1
 100 0 0 0.000000
 1 52 6
 1 1 1
 52 1 0 0.000000
 1 33 33
 1 14 1
 57 1 0 0.000000
 1 28 28
 1 14 1
 57 1 0 0.000000
 1 27 27
 1 16 3
 52 1 0 0.000000
 1 23 23
 1 15 1
 %HYDROPHOBIC_CONTACTS 3
 # Format: <aa_name> <aa_nr> <aa_pdb_nr> <aa_chain_id><nof_cons> <con1> <con2> ... <conn>
 PHE 31 31 A 4 7 12 20 21
 LEU 28 28 A 6 10 17 18 20 21 30
 ILE 50 50 A 3 13 17 18
# File written by POSEVIEW 0.9.3   (04.06.10)
# Input File / No.   : 4dfr_min 0
# Sybyl molecule name: mtx

@<TRIPOS>MOLECULE
mtx
54 56 1
SMALL
FORMAL_CHARGES
@<TRIPOS>ATOM
   1 N1          23.1872    57.6486    23.9079 N.ar       1 M_4DFR_MIN    1.000
   2 C2          23.5040    56.9883    22.7704 C.ar       1 M_4DFR_MIN    0.000
   3 N2          24.7652    56.5564    22.5331 N.pl3      1 M_4DFR_MIN    0.000
   4 N3          22.5571    56.7447    21.8386 N.ar       1 M_4DFR_MIN    0.000
   5 C4          21.2808    57.1474    22.0067 C.ar       1 M_4DFR_MIN    0.000
   6 N4          20.3545    56.8902    21.0547 N.pl3      1 M_4DFR_MIN    0.000
   7 C4A         20.9341    57.8311    23.1734 C.ar       1 M_4DFR_MIN    0.000
   8 N5          19.6720    58.2528    23.3883 N.ar       1 M_4DFR_MIN    0.000
   9 C6          19.3464    58.9293    24.5092 C.ar       1 M_4DFR_MIN    0.000
  10 C7          20.3417    59.1765    25.4627 C.ar       1 M_4DFR_MIN    0.000
  11 N8          21.6000    58.7379    25.2540 N.ar       1 M_4DFR_MIN    0.000
  12 C8A         21.9254    58.0749    24.1257 C.ar       1 M_4DFR_MIN    0.000
  13 C9          17.8997    59.4024    24.6850 C.3        1 M_4DFR_MIN    0.000
  14 N10         17.7163    60.2675    25.8524 N.pl3      1 M_4DFR_MIN    0.000
  15 CM          17.4033    59.6533    27.1446 C.3        1 M_4DFR_MIN    0.000
  16 C11         18.0873    64.4323    25.5655 C.ar       1 M_4DFR_MIN    0.000
  17 C12         17.1416    63.8551    26.4194 C.ar       1 M_4DFR_MIN    0.000
  18 C13         16.9981    62.4666    26.4917 C.ar       1 M_4DFR_MIN    0.000
  19 C14         17.8204    61.6197    25.7379 C.ar       1 M_4DFR_MIN    0.000
  20 C15         18.7484    62.2019    24.8649 C.ar       1 M_4DFR_MIN    0.000
  21 C16         18.8595    63.5912    24.7569 C.ar       1 M_4DFR_MIN    0.000
  22 C           18.2420    65.9400    25.5376 C.2        1 M_4DFR_MIN    0.000
  23 O           17.2555    66.6020    25.8187 O.2        1 M_4DFR_MIN    0.000
  24 N           19.4302    66.5133    25.2246 N.am       1 M_4DFR_MIN    0.000
  25 CA          19.5933    67.9679    25.2069 C.3        1 M_4DFR_MIN    0.000
  26 CT          20.3385    68.3744    23.9588 C.2        1 M_4DFR_MIN    0.000
  27 O1          20.9600    67.4847    23.3171 O.co2      1 M_4DFR_MIN   -0.500
  28 O2          20.3047    69.5855    23.6085 O.co2      1 M_4DFR_MIN   -0.500
  29 CB          20.4004    68.4160    26.4548 C.3        1 M_4DFR_MIN    0.000
  30 CG          19.7189    67.9847    27.7817 C.3        1 M_4DFR_MIN    0.000
  31 CD          18.3361    68.5674    27.9311 C.2        1 M_4DFR_MIN    0.000
  32 OE1         17.4066    67.8162    28.3343 O.co2      1 M_4DFR_MIN   -0.500
  33 OE2         18.1658    69.7844    27.6495 O.co2      1 M_4DFR_MIN   -0.500
  34 ****        24.9830    56.0557    21.6588 H          1 M_4DFR_MIN    0.000
  35 ****        20.1262    59.7201    26.3745 H          1 M_4DFR_MIN    0.000
  36 ****        17.2686    58.5053    24.7824 H          1 M_4DFR_MIN    0.000
  37 ****        17.5823    59.9201    23.7659 H          1 M_4DFR_MIN    0.000
  38 ****        17.7986    60.2524    27.9798 H          1 M_4DFR_MIN    0.000
  39 ****        17.8484    58.6489    27.2174 H          1 M_4DFR_MIN    0.000
  40 ****        16.3122    59.5572    27.2497 H          1 M_4DFR_MIN    0.000
  41 ****        16.5102    64.4852    27.0381 H          1 M_4DFR_MIN    0.000
  42 ****        16.2318    62.0576    27.1412 H          1 M_4DFR_MIN    0.000
  43 ****        19.4016    61.5862    24.2575 H          1 M_4DFR_MIN    0.000
  44 ****        19.5493    64.0035    24.0288 H          1 M_4DFR_MIN    0.000
  45 ****        20.2493    65.9658    25.0495 H          1 M_4DFR_MIN    0.000
  46 ****        18.6244    68.4934    25.1855 H          1 M_4DFR_MIN    0.000
  47 ****        20.5211    69.5121    26.4415 H          1 M_4DFR_MIN    0.000
  48 ****        21.4053    67.9641    26.4098 H          1 M_4DFR_MIN    0.000
  49 ****        20.3256    68.3336    28.6327 H          1 M_4DFR_MIN    0.000
  50 ****        19.6714    66.8848    27.8313 H          1 M_4DFR_MIN    0.000
  51 ****        25.5161    56.7228    23.2192 H          1 M_4DFR_MIN    0.000
  52 ****        20.6218    56.3851    20.1969 H          1 M_4DFR_MIN    0.000
  53 ****        19.3778    57.1971    21.1799 H          1 M_4DFR_MIN    0.000
  54 H55         23.8916    57.8313    24.6076 H          1 M_4DFR_MIN    0.000
@<TRIPOS>BOND
   1        1        2 ar        
   2        1       12 ar        
   3       12        7 ar        
   4       12       11 ar        
   5       11       10 ar        
   6       10        9 ar        
   7        9        8 ar        
   8        9       13 1         
   9       13       14 1         
  10       14       15 1         
  11       14       19 1         
  12       19       18 ar        
  13       19       20 ar        
  14       20       21 ar        
  15       21       16 ar        
  16       16       17 ar        
  17       16       22 1         
  18       22       23 2         
  19       22       24 am        
  20       24       25 1         
  21       25       26 1         
  22       25       29 1         
  23       29       30 1         
  24       30       31 1         
  25       31       32 ar        
  26       31       33 ar        
  27       26       27 ar        
  28       26       28 ar        
  29       17       18 ar        
  30        7        8 ar        
  31        7        5 ar        
  32        5        4 ar        
  33        5        6 1         
  34        2        4 ar        
  35        2        3 1         
  36        3       34 1         
  37       10       35 1         
  38       13       36 1         
  39       13       37 1         
  40       15       38 1         
  41       15       39 1         
  42       15       40 1         
  43       17       41 1         
  44       18       42 1         
  45       20       43 1         
  46       21       44 1         
  47       24       45 1         
  48       25       46 1         
  49       29       47 1         
  50       29       48 1         
  51       30       49 1         
  52       30       50 1         
  53        3       51 1         
  54        6       52 1         
  55        6       53 1         
  56        1       54 1         
@<TRIPOS>SUBSTRUCTURE
    1  M_4DFR_MIN      1  RESIDUE  1  *    M_4
# File written by POSEVIEW 0.9.3   (04.06.10)
# Input File / No.   : Arg57A 57
# Sybyl molecule name: Arg57A

@<TRIPOS>MOLECULE
Arg57A
26 25
SMALL
FORMAL_CHARGES
@<TRIPOS>ATOM
   1  NH2        19.2500    69.0410    20.5310 N.pl3      1 lig    0.333
   2  CZ         19.5900    67.9190    19.6920 C.cat      1 lig    0.000
   3  NH1        20.2520    66.9660    20.2950 N.pl3      1 lig    0.333
   4  NE         19.1570    68.1690    18.4860 N.pl3      1 lig    0.333
   5  CD         19.3150    67.2490    17.5070 C.3        1 lig    0.000
   6  CG         18.9240    67.5560    16.0730 C.3        1 lig    0.000
   7  CB         17.5250    67.7820    15.7640 C.3        1 lig    0.000
   8  CA         17.1850    68.9360    14.8810 C.3        1 lig    0.000
   9  C          15.8150    68.7420    14.3590 C.2        1 lig    0.000
  10 R           15.7540    68.0560    13.2040 Du         1 lig    0.000
  11  O          14.7570    69.0570    14.8740 O.2        1 lig    0.000
  12  N          17.2080    70.1390    15.6020 N.am       1 lig    0.000
  13 R           18.1920    71.0670    15.5650 Du         1 lig    0.000
  14 H           19.5009    69.0356    21.4990 H          1 lig    0.000
  15 H           18.7633    69.8246    20.1450 H          1 lig    0.000
  16 H           20.4546    67.0386    21.2716 H          1 lig    0.000
  17 H           20.5556    66.1647    19.7796 H          1 lig    0.000
  18 H           18.7087    69.0402    18.2861 H          1 lig    0.000
  19 H           20.2870    67.0143    17.4922 H          1 lig    0.000
  20 H           18.7824    66.4483    17.7813 H          1 lig    0.000
  21 H           19.4216    68.3802    15.8027 H          1 lig    0.000
  22 H           19.2276    66.7844    15.5140 H          1 lig    0.000
  23 H           17.1804    66.9550    15.3197 H          1 lig    0.000
  24 H           17.0465    67.9191    16.6313 H          1 lig    0.000
  25 H           17.8309    68.9705    14.1184 H          1 lig    0.000
  26 H           16.4267    70.3278    16.1970 H          1 lig    0.000
@<TRIPOS>BOND
   1        1        2 ar        
   2        2        3 ar        
   3        2        4 ar        
   4        4        5 1         
   5        5        6 1         
   6        6        7 1         
   7        7        8 1         
   8        8        9 1         
   9        9       10 am        
  10        9       11 2         
  11        8       12 1         
  12       12       13 am        
  13        1       14 1         
  14        1       15 1         
  15        3       16 1         
  16        3       17 1         
  17        4       18 1         
  18        5       19 1         
  19        5       20 1         
  20        6       21 1         
  21        6       22 1         
  22        7       23 1         
  23        7       24 1         
  24        8       25 1         
  25       12       26 1         
@<TRIPOS>SUBSTRUCTURE
   1 M_ARG57A               1
# File written by POSEVIEW 0.9.3   (04.06.10)
# Input File / No.   : Arg52A 52
# Sybyl molecule name: Arg52A

@<TRIPOS>MOLECULE
Arg52A
26 25
SMALL
FORMAL_CHARGES
@<TRIPOS>ATOM
   1  NH2        16.2250    68.8390    26.4600 N.pl3      1 lig    0.333
   2  CZ         15.1060    69.2750    25.8930 C.cat      1 lig    0.000
   3  NH1        15.0130    70.6960    25.6650 N.pl3      1 lig    0.333
   4  NE         14.1740    68.5000    25.4810 N.pl3      1 lig    0.333
   5  CD         12.7520    68.7500    25.8420 C.3        1 lig    0.000
   6  CG         11.6940    68.2740    25.0030 C.3        1 lig    0.000
   7  CB         10.3010    68.2180    24.5250 C.3        1 lig    0.000
   8  CA          9.7790    66.9420    23.6720 C.3        1 lig    0.000
   9  C          10.6690    66.8210    22.4950 C.2        1 lig    0.000
  10 R           10.3610    67.7570    21.6270 Du         1 lig    0.000
  11  O          11.5830    66.0300    22.3770 O.2        1 lig    0.000
  12  N           9.9090    65.7310    24.4290 N.am       1 lig    0.000
  13 R            9.2290    65.3600    25.3710 Du         1 lig    0.000
  14 H           16.9193    69.4918    26.7629 H          1 lig    0.000
  15 H           16.3733    67.8579    26.5840 H          1 lig    0.000
  16 H           15.7402    71.3026    25.9862 H          1 lig    0.000
  17 H           14.2213    71.0747    25.1857 H          1 lig    0.000
  18 H           14.4052    67.7141    24.9075 H          1 lig    0.000
  19 H           12.6091    68.3404    26.7430 H          1 lig    0.000
  20 H           12.6429    69.7420    25.9052 H          1 lig    0.000
  21 H           12.1228    68.4837    24.1243 H          1 lig    0.000
  22 H           11.8005    67.2999    25.2024 H          1 lig    0.000
  23 H            9.7170    68.2808    25.3343 H          1 lig    0.000
  24 H           10.1622    69.0242    23.9498 H          1 lig    0.000
  25 H            8.8329    67.1020    23.3904 H          1 lig    0.000
  26 H           10.6468    65.1160    24.1507 H          1 lig    0.000
@<TRIPOS>BOND
   1        1        2 ar        
   2        2        3 ar        
   3        2        4 ar        
   4        4        5 1         
   5        5        6 1         
   6        6        7 1         
   7        7        8 1         
   8        8        9 1         
   9        9       10 am        
  10        9       11 2         
  11        8       12 1         
  12       12       13 am        
  13        1       14 1         
  14        1       15 1         
  15        3       16 1         
  16        3       17 1         
  17        4       18 1         
  18        5       19 1         
  19        5       20 1         
  20        6       21 1         
  21        6       22 1         
  22        7       23 1         
  23        7       24 1         
  24        8       25 1         
  25       12       26 1         
@<TRIPOS>SUBSTRUCTURE
   1 M_ARG52A               1
# File written by POSEVIEW 0.9.3   (04.06.10)
# Input File / No.   : Tyr100A 100
# Sybyl molecule name: Tyr100A

@<TRIPOS>MOLECULE
Tyr100A
23 23
SMALL
FORMAL_CHARGES
@<TRIPOS>ATOM
   1  OH         20.3220    54.1870    20.0520 O.3        1 lig    0.000
   2  CZ         20.0610    53.0890    19.2430 C.ar       1 lig    0.000
   3  CE1        20.2570    53.3470    17.9410 C.ar       1 lig    0.000
   4  CD1        19.9350    52.4350    16.8600 C.ar       1 lig    0.000
   5  CG         19.6650    51.1430    17.3900 C.ar       1 lig    0.000
   6  CB         19.4080    49.8920    16.4630 C.3        1 lig    0.000
   7  CA         18.4950    50.1340    15.3150 C.3        1 lig    0.000
   8  N          17.0920    50.4490    15.6320 N.am       1 lig    0.000
   9 R           16.2760    50.7470    14.6610 Du         1 lig    0.000
  10  C          18.6720    48.9070    14.2340 C.2        1 lig    0.000
  11  O          19.4080    48.9550    13.4470 O.2        1 lig    0.000
  12 R           17.7260    47.9780    14.5870 Du         1 lig    0.000
  13  CD2        19.4180    50.8770    18.7650 C.ar       1 lig    0.000
  14  CE2        19.6410    51.8450    19.7210 C.ar       1 lig    0.000
  15 H           21.0274    54.7544    19.6273 H          1 lig    0.000
  16 H           20.6538    54.2322    17.6983 H          1 lig    0.000
  17 H           19.9071    52.6776    15.8903 H          1 lig    0.000
  18 H           19.0124    49.1660    17.0255 H          1 lig    0.000
  19 H           20.2892    49.5899    16.0994 H          1 lig    0.000
  20 H           18.8581    50.9360    14.8407 H          1 lig    0.000
  21 H           16.7702    50.4344    16.5787 H          1 lig    0.000
  22 H           19.0788    49.9778    19.0415 H          1 lig    0.000
  23 H           19.5102    51.6678    20.6964 H          1 lig    0.000
@<TRIPOS>BOND
   1        1        2 1         
   2        2        3 ar        
   3        3        4 ar        
   4        4        5 ar        
   5        5        6 1         
   6        6        7 1         
   7        7        8 1         
   8        8        9 am        
   9        7       10 1         
  10       10       11 2         
  11       10       12 am        
  12        5       13 ar        
  13       13       14 ar        
  14        2       14 ar        
  15        1       15 1         
  16        3       16 1         
  17        4       17 1         
  18        6       18 1         
  19        6       19 1         
  20        7       20 1         
  21        8       21 1         
  22       13       22 1         
  23       14       23 1         
@<TRIPOS>SUBSTRUCTURE
   1 M_TYR100A              1
# File written by POSEVIEW 0.9.3   (04.06.10)
# Input File / No.   : Ile5A 5
# Sybyl molecule name: Ile5A

@<TRIPOS>MOLECULE
Ile5A
21 20
SMALL
FORMAL_CHARGES
@<TRIPOS>ATOM
   1  O          22.0740    56.0430    19.0960 O.2        1 lig    0.000
   2  C          23.2820    55.8740    19.0450 C.2        1 lig    0.000
   3  CA         24.1070    56.5280    17.9190 C.3        1 lig    0.000
   4  N          23.5290    56.1400    16.6830 N.am       1 lig    0.000
   5 R           24.2650    55.6070    15.6540 Du         1 lig    0.000
   6  CB         24.1950    58.1340    17.9410 C.3        1 lig    0.000
   7  CG1        24.7360    58.7960    19.2430 C.3        1 lig    0.000
   8  CD1        25.5700    60.0640    19.0080 C.3        1 lig    0.000
   9  CG2        22.8340    58.8930    17.7130 C.3        1 lig    0.000
  10 R           24.0370    55.4060    19.8760 Du         1 lig    0.000
  11 H           25.0422    56.1788    17.9775 H          1 lig    0.000
  12 H           22.5444    56.2597    16.5560 H          1 lig    0.000
  13 H           24.8076    58.3989    17.1963 H          1 lig    0.000
  14 H           23.9552    59.0372    19.8193 H          1 lig    0.000
  15 H           25.3086    58.1285    19.7190 H          1 lig    0.000
  16 H           25.8793    60.4277    19.8867 H          1 lig    0.000
  17 H           26.3637    59.8413    18.4419 H          1 lig    0.000
  18 H           25.0108    60.7498    18.5422 H          1 lig    0.000
  19 H           22.9928    59.8798    17.7443 H          1 lig    0.000
  20 H           22.4587    58.6444    16.8201 H          1 lig    0.000
  21 H           22.1851    58.6374    18.4297 H          1 lig    0.000
@<TRIPOS>BOND
   1        1        2 2         
   2        2        3 1         
   3        3        4 1         
   4        4        5 am        
   5        3        6 1         
   6        6        7 1         
   7        7        8 1         
   8        6        9 1         
   9        2       10 am        
  10        3       11 1         
  11        4       12 1         
  12        6       13 1         
  13        7       14 1         
  14        7       15 1         
  15        8       16 1         
  16        8       17 1         
  17        8       18 1         
  18        9       19 1         
  19        9       20 1         
  20        9       21 1         
@<TRIPOS>SUBSTRUCTURE
   1 M_ILE5A                1
# File written by POSEVIEW 0.9.3   (04.06.10)
# Input File / No.   : Asp27A 27
# Sybyl molecule name: Asp27A

@<TRIPOS>MOLECULE
Asp27A
14 13
SMALL
FORMAL_CHARGES
@<TRIPOS>ATOM
   1  OD2        24.4140    59.1920    26.4450 O.co2      1 lig   -0.500
   2  CG         25.6680    59.1840    26.5180 C.2        1 lig    0.000
   3  CB         26.4700    59.9750    27.6590 C.3        1 lig    0.000
   4  CA         26.9640    61.3310    27.2390 C.3        1 lig    0.000
   5  C          25.9240    62.1950    26.6360 C.2        1 lig    0.000
   6 R           25.0860    62.8890    27.4080 Du         1 lig    0.000
   7  O          25.9340    62.1300    25.3930 O.2        1 lig    0.000
   8  N          27.4350    62.0170    28.4530 N.am       1 lig    0.000
   9 R           28.2830    63.0670    28.2760 Du         1 lig    0.000
  10  OD1        26.4190    58.8530    25.5030 O.co2      1 lig   -0.500
  11 H           27.2597    59.4230    27.9269 H          1 lig    0.000
  12 H           25.8627    60.0923    28.4448 H          1 lig    0.000
  13 H           27.7230    61.2219    26.5971 H          1 lig    0.000
  14 H           27.1457    61.7255    29.3648 H          1 lig    0.000
@<TRIPOS>BOND
   1        1        2 ar        
   2        2        3 1         
   3        3        4 1         
   4        4        5 1         
   5        5        6 am        
   6        5        7 2         
   7        4        8 1         
   8        8        9 am        
   9        2       10 ar        
  10        3       11 1         
  11        3       12 1         
  12        4       13 1         
  13        8       14 1         
@<TRIPOS>SUBSTRUCTURE
   1 M_ASP27A               1
# File written by POSEVIEW 0.9.3   (04.06.10)
# Input File / No.   : Phe31A 31
# Sybyl molecule name: Phe31A

@<TRIPOS>MOLECULE
Phe31A
22 22
SMALL
FORMAL_CHARGES
@<TRIPOS>ATOM
   1  CG         22.3680    62.5100    22.1780 C.ar       1 lig    0.000
   2  CB         23.6450    62.7040    22.8990 C.3        1 lig    0.000
   3  CA         24.7410    63.1960    21.9580 C.3        1 lig    0.000
   4  N          25.9060    63.3740    22.7670 N.am       1 lig    0.000
   5 R           27.0060    63.7450    22.4730 Du         1 lig    0.000
   6  C          24.3960    64.5040    21.2880 C.2        1 lig    0.000
   7  O          24.2280    64.4560    20.0450 O.2        1 lig    0.000
   8 R           24.3770    65.5860    22.1340 Du         1 lig    0.000
   9  CD1        22.0740    61.3390    21.5160 C.ar       1 lig    0.000
  10  CE1        20.9000    61.1780    20.7290 C.ar       1 lig    0.000
  11  CZ         19.9440    62.2840    20.8690 C.ar       1 lig    0.000
  12  CE2        20.2890    63.4460    21.5600 C.ar       1 lig    0.000
  13  CD2        21.5290    63.6560    22.2960 C.ar       1 lig    0.000
  14 H           23.9276    61.8334    23.3017 H          1 lig    0.000
  15 H           23.5106    63.3792    23.6243 H          1 lig    0.000
  16 H           24.9061    62.5009    21.2583 H          1 lig    0.000
  17 H           25.7825    63.1531    23.7344 H          1 lig    0.000
  18 H           22.7108    60.5716    21.5914 H          1 lig    0.000
  19 H           20.7410    60.3877    20.1373 H          1 lig    0.000
  20 H           19.0334    62.2032    20.4636 H          1 lig    0.000
  21 H           19.6299    64.1980    21.5493 H          1 lig    0.000
  22 H           21.7578    64.4834    22.8089 H          1 lig    0.000
@<TRIPOS>BOND
   1        1        2 1         
   2        2        3 1         
   3        3        4 1         
   4        4        5 am        
   5        3        6 1         
   6        6        7 2         
   7        6        8 am        
   8        1        9 ar        
   9        9       10 ar        
  10       10       11 ar        
  11       11       12 ar        
  12       12       13 ar        
  13        1       13 ar        
  14        2       14 1         
  15        2       15 1         
  16        3       16 1         
  17        4       17 1         
  18        9       18 1         
  19       10       19 1         
  20       11       20 1         
  21       12       21 1         
  22       13       22 1         
@<TRIPOS>SUBSTRUCTURE
   1 M_PHE31A               1
